<?xml version="1.0" encoding="UTF-8"?>
<routes>
<vType accel="3.0" decel="6.0" id="Car_NAPOLI" color="255,0,255" length="5.0" minGap="2.5" maxSpeed="120.0" sigma="0.5" />
<vType accel="3.0" decel="6.0" id="Car_SALERNO" color="0,255,255" length="5.0" minGap="2.5" maxSpeed="120.0" sigma="0.5" />
<vType accel="3.0" decel="6.0" id="Car_AVELLINO" color="0,255,0" length="5.0" minGap="2.5" maxSpeed="120.0" sigma="0.5" />
<vType accel="3.0" decel="6.0" id="Car_BENEVENTO" color="255,255,0" length="5.0" minGap="2.5" maxSpeed="120.0" sigma="0.5" />
<vType accel="3.0" decel="6.0" id="Car_FISCIANO" color="255,0,0" length="5.0" minGap="2.5" maxSpeed="120.0" sigma="0.5" />
<vType accel="3.0" decel="6.0" id="Car_PENTA" color="0,0,255" length="5.0" minGap="2.5" maxSpeed="120.0" sigma="0.5" />
<route id="route01" edges="-579690548#0 -906615591#1 -906615591#0 587489967#0 587489967#1 587489968#0 587489968#1 587489968#2 587489968#3 -392822665#1 -392822665#0 392822666 392822664#3 392822667 -147391538#5 -147391538#4 -147391538#3 -147391538#2 -147391538#1 -147391538#0 -40567773 37764377#0 37764377#1 -84678487#2 -84678487#1 310709145 310709144#1 -310709147 -30585685#0 93471516#2 93471516#3 181766982 146488509#1 146488503 181766991#0 181766991#1 181766991#2 181766991#3 181766991#4 374689360#0 374689360#1 374689360#2 374689360#3 374689360#4 374689360#5 374689360#6 374689360#7 374689360#9 37445539#0 37445539#1 376765597#1 "/>
<route id="route02" edges="-579690548#0 -906615591#1 -906615591#0 587489967#0 587489967#1 587489968#0 587489968#1 587489968#2 587489968#3 -392822665#1 -392822665#0 392822666 392822664#3 392822667 -147391538#5 -147391538#4 -147391538#3 -147391538#2 -147391538#1 -147391538#0 -40567773 -40567772#4 -40567772#3 62166827#0 62166827#1 169424745 62166884 330224629 330224618 330224615 330224633 176332819 176332834-AddedOnRampEdge 176332834 176332841-AddedOnRampEdge 176332841 176332820 169389776 390955285#0 145197346 54169778#1 54169778#2 54169778#3 145192431#0 145192431#1 145192431#2 374816702#0 374816702#1 -374817633 374816193 145192442#3 -108541466 -374926887#1 -374926887#0 -176332858#2 174306818 -176332862 174307442#2 174307442#3 176332870#0 -176332868 174307607#1 -198264235 93477035#1 374926590#0 374926590#1 390956263#5 390956263#6 374689360#3 374689360#4 -146488518 -374697865#0 -146488512 -372683870#0 -146488112#1 -146488112#0 1148162292 1148162297#2 1148162297#3 1148162297#4 1148162293 -108541450 -374689360#10 37445539#0 37445539#1 376765597#1 "/>
<route id="route03" edges="-579690548#0 -906615591#1 -906615591#0 587489967#0 587489967#1 587489968#0 587489968#1 587489968#2 587489968#3 392822665#3 392822665#4 392822665#5 392822665#6 392822665#7 906511004 951974693#0 951974693#1 951974693#2 110971337 110971342#0 110971342#1 122726139 122726140#2 122726140#3 1157956734#1 122726115 1244092767 -122726118#1 122726138 -1279290559 84678495#0 84678495#1 1262977616 122726135 84678520 122726130#3 122726130#4 122726130#5 122726123 -122726127 122726129 176332841-AddedOnRampEdge 176332841 176332820 169389776 390955285#0 390955285#1 -292875519#3 -292875519#2 -292875519#1 -292875519#0 -292875518 1076890129 707344764#2 707344764#3 1076890130 -390956261#4 -390956261#3 -390956261#2 -390956261#1 -390956261#0 1292091764 1292091763#3 1292091763#4 37447095#0 37447095#1 166586832 166586815#1 166586815#2 -93471525#2 -93471525#1 -93471525#0 376765597#1 "/>
<route id="route04" edges="-579690548#0 -906615591#1 -906615591#0 587489967#0 587489967#1 587489968#0 587489968#1 587489968#2 587489968#3 392822665#3 392822665#4 392822665#5 392822665#6 392822665#7 906511004 951974693#0 951974693#1 951974693#2 110971337 110971342#0 110971342#1 122726139 122726140#2 122726140#3 1157956734#1 122726115 1244092767 -122726118#1 122726138 -1279290559 84678495#0 84678495#1 1262977616 122726135 84678520 122726130#3 122726130#4 122726130#5 122726123 -122726127 122726129 176332841-AddedOnRampEdge 176332841 176332820 169389776 390955285#0 390955285#1 -292875519#3 -292875519#2 -292875519#1 -292875519#0 -292875518 1076890129 707344764#2 707344764#3 1076890130 -390956261#4 -390956261#3 -390956261#2 -390956261#1 -390956261#0 1292091764 1292091763#3 1292091763#4 37447095#0 37447095#1 166586832 166586815#1 166586815#2 -93471525#2 -93471525#1 -93471525#0 376765597#1 "/>
...
</routes>